5db3_ligand

Created by X-TOOL on Wed Dec 13 14:17:49 2017
 72 77  0  0  0  0  0  0  0  0999 V2000
   13.3110    7.7050   12.6690  C 0  0  0  0  0  0
   13.6250    9.0580   12.5340  C 0  0  0  0  0  0
   12.5940    9.9200   12.0920  C 0  0  0  0  0  0
   11.3660    9.4530   11.7800  N 0  0  0  0  0  0
   12.0630    7.2540   12.3890  N 0  0  0  0  0  0
   19.2530    7.7520   12.5990  F 0  0  0  0  0  0
   17.9960    7.8000   12.3360  C 0  0  0  0  0  0
   17.6360    6.5090   11.9820  F 0  0  0  0  0  0
   17.7770    8.4870   11.2680  F 0  0  0  0  0  0
   17.1860    8.2480   13.5880  C 0  0  0  0  0  0
   15.6750    8.2140   13.2340  C 0  0  0  0  0  0
   14.6500    6.8540   13.1990  S 0  0  0  0  0  0
   14.9180    9.2940   12.8500  C 0  0  0  0  0  0
   11.0680    8.0840   11.9410  C 0  0  0  0  0  0
   12.7980   11.2840   11.9600  N 0  0  0  0  0  0
   11.7320   12.2160   11.4920  C 0  0  0  0  0  0
   11.5640   13.3250   12.5450  C 0  0  0  0  0  0
   10.7090   14.4620   12.0890  C 0  0  0  0  0  0
   12.2860   12.8700   10.2470  C 0  0  0  0  0  0
   11.3690   14.0460    9.8600  C 0  0  0  0  0  0
   11.3770   15.0700   10.9100  N 0  3  0  0  0  0
   10.5140   16.1820   10.4220  C 0  0  0  0  0  0
   10.4610   17.3810   11.3140  C 0  0  0  0  0  0
    9.2820   17.8140   11.9750  C 0  0  0  0  0  0
    8.0880   17.0450   11.9320  C 0  0  0  0  0  0
   11.5690   18.2320   11.4050  C 0  0  0  0  0  0
   12.6900   17.8110   10.7360  O 0  0  0  0  0  0
   13.9510   18.5150   10.8190  C 0  0  0  0  0  0
   11.5110   19.4010   12.2040  C 0  0  0  0  0  0
   10.3790   19.7640   12.8080  C 0  0  0  0  0  0
    9.2600   18.9880   12.6980  C 0  0  0  0  0  0
    8.2680   19.6170   13.4170  C 0  0  0  0  0  0
    8.8010   20.7550   13.9440  C 0  0  0  0  0  0
    8.1770   21.7730   14.7590  C 0  0  0  0  0  0
    7.6990   22.5650   15.3790  N 0  0  0  0  0  0
   10.0870   20.8780   13.5700  N 0  0  0  0  0  0
   11.0400   21.9480   13.8920  C 0  0  0  0  0  0
   10.8850   23.0800   12.8980  C 0  0  0  0  0  0
   11.8580   23.7500   12.3040  C 0  0  0  0  0  0
   11.2880   24.6880   11.5160  N 0  0  0  0  0  0
   10.0740   24.6180   11.6060  N 0  0  0  0  0  0
    9.7670   23.6400   12.4850  C 0  0  0  0  0  0
   17.4776    9.2697   13.8727  H 0  0  0  0  0  0
   17.3867    7.5627   14.4247  H 0  0  0  0  0  0
   15.3409   10.2964   12.8022  H 0  0  0  0  0  0
   10.0799    7.6988   11.7168  H 0  0  0  0  0  0
   13.7236   11.6701   12.1947  H 0  0  0  0  0  0
   10.7839   11.6925   11.2997  H 0  0  0  0  0  0
   12.5598   13.7186   12.7966  H 0  0  0  0  0  0
   11.1061   12.8847   13.4430  H 0  0  0  0  0  0
   10.6125   15.2067   12.8928  H 0  0  0  0  0  0
    9.7111   14.0940   11.8083  H 0  0  0  0  0  0
   12.3165   12.1383    9.4263  H 0  0  0  0  0  0
   13.3022   13.2420   10.4446  H 0  0  0  0  0  0
   10.3424   13.6751    9.7238  H 0  0  0  0  0  0
   11.7265   14.4895    8.9190  H 0  0  0  0  0  0
   12.3094   15.3856   11.1269  H 0  0  0  0  0  0
    9.4904   15.7951   10.3097  H 0  0  0  0  0  0
   10.8942   16.5034    9.4411  H 0  0  0  0  0  0
    8.2541   16.1437   11.3237  H 0  0  0  0  0  0
    7.2813   17.6450   11.4856  H 0  0  0  0  0  0
    7.8042   16.7509   12.9533  H 0  0  0  0  0  0
   14.7013   17.9970   10.2036  H 0  0  0  0  0  0
   14.2889   18.5398   11.8655  H 0  0  0  0  0  0
   13.8217   19.5435   10.4509  H 0  0  0  0  0  0
   12.4001   20.0091   12.3260  H 0  0  0  0  0  0
    7.2439   19.2683   13.5417  H 0  0  0  0  0  0
   12.0654   21.5531   13.8406  H 0  0  0  0  0  0
   10.8416   22.3221   14.9072  H 0  0  0  0  0  0
   12.9260   23.5770   12.4276  H 0  0  0  0  0  0
    9.3974   25.2053   11.0978  H 0  0  0  0  0  0
    8.7625   23.3610   12.7998  H 0  0  0  0  0  0
  1  2  4  0  0  0
  1  5  4  0  0  0
 12  1  1  0  0  0
  2  3  4  0  0  0
  2 13  1  0  0  0
  3  4  4  0  0  0
  3 15  1  0  0  0
 14  4  4  0  0  0
  5 14  4  0  0  0
  7  6  1  0  0  0
  7  8  1  0  0  0
  7  9  1  0  0  0
 10  7  1  0  0  0
 11 10  1  0  0  0
 11 12  1  0  0  0
 11 13  2  0  0  0
 15 16  1  0  0  0
 16 17  1  0  0  0
 16 19  1  0  0  0
 17 18  1  0  0  0
 18 21  1  0  0  0
 19 20  1  0  0  0
 20 21  1  0  0  0
 21 22  1  0  0  0
 22 23  1  0  0  0
 23 24  4  0  0  0
 23 26  4  0  0  0
 24 25  1  0  0  0
 24 31  4  0  0  0
 26 27  1  0  0  0
 26 29  4  0  0  0
 27 28  1  0  0  0
 29 30  4  0  0  0
 30 31  4  0  0  0
 30 36  1  0  0  0
 31 32  1  0  0  0
 32 33  2  0  0  0
 33 34  1  0  0  0
 33 36  1  0  0  0
 34 35  3  0  0  0
 36 37  1  0  0  0
 37 38  1  0  0  0
 38 39  1  0  0  0
 38 42  2  0  0  0
 39 40  2  0  0  0
 40 41  1  0  0  0
 41 42  1  0  0  0
 10 43  1  0  0  0
 10 44  1  0  0  0
 13 45  1  0  0  0
 14 46  1  0  0  0
 15 47  1  0  0  0
 16 48  1  0  0  0
 17 49  1  0  0  0
 17 50  1  0  0  0
 18 51  1  0  0  0
 18 52  1  0  0  0
 19 53  1  0  0  0
 19 54  1  0  0  0
 20 55  1  0  0  0
 20 56  1  0  0  0
 21 57  1  0  0  0
 22 58  1  0  0  0
 22 59  1  0  0  0
 25 60  1  0  0  0
 25 61  1  0  0  0
 25 62  1  0  0  0
 28 63  1  0  0  0
 28 64  1  0  0  0
 28 65  1  0  0  0
 29 66  1  0  0  0
 32 67  1  0  0  0
 37 68  1  0  0  0
 37 69  1  0  0  0
 39 70  1  0  0  0
 41 71  1  0  0  0
 42 72  1  0  0  0
M  END
> <MOLECULAR_FORMULA>
C29H30N8OSF3

> <MOLECULAR_WEIGHT>
595.4

> <NUM_HB_ATOMS>
9  

> <NUM_ROTOR>
7  

> <XLOGP2>
5.04 

$$$$